LTspice 24.0.9 for Windows
Circuit: * C:\Users\Ditte\OneDrive - Aalborg Universitet\Desktop\esd4\project\heterodyneMixing\draftOfMixer.asc
Start Time: Fri Feb 23 14:04:11 2024
solver = Normal
Maximum thread count: 16
tnom = 27
temp = 27
method = modified trap
.OP point found by inspection.
Total elapsed time: 0.172 seconds.

