LTspice 24.0.9 for Windows
Circuit: * C:\Users\Ditte\OneDrive - Aalborg Universitet\Desktop\esd4\project\heterodyneMixing\Draft1.asc
Start Time: Fri Feb 23 11:02:47 2024
Warning: Multiple definitions of model "2scr375p" Type: BJT
Warning: Multiple definitions of model "bc857b" Type: BJT
Warning: Multiple definitions of model "bc847c" Type: BJT
Warning: Multiple definitions of model "bc847b" Type: BJT
solver = Normal
Maximum thread count: 16
tnom = 27
temp = 27
method = modified trap
WARNING: Node OUTPUT is floating.

WARNING: Less than two connections to node output.  This node is used by c2.
Direct Newton iteration for .op point succeeded.
Total elapsed time: 0.127 seconds.

