LTspice 24.0.9 for Windows
Circuit: * C:\Users\theil\OneDrive\Skrivebord\SpiceFiler4Sem\Oscilator\AntennaOscilator.asc
Start Time: Tue Mar 19 12:43:12 2024
Warning: Multiple definitions of model "2scr375p" Type: BJT
Warning: Multiple definitions of model "bc857b" Type: BJT
Warning: Multiple definitions of model "bc847c" Type: BJT
Warning: Multiple definitions of model "bc847b" Type: BJT
c4: both pins shorted together -- ignoring.
r1: both pins shorted together -- ignoring.
solver = Normal
Maximum thread count: 12
tnom = 27
temp = 27
method = modified trap
WARNING: Less than two connections to node vcc-.  This node is used by v2.
Direct Newton iteration for .op point succeeded.
Total elapsed time: 0.563 seconds.

