LTspice 24.0.9 for Windows
Circuit: * C:\Users\Ditte\aauRepo\esd4\project\Oscilator\ClappOscilator.asc
Start Time: Mon Feb 26 10:12:15 2024
Warning: Multiple definitions of model "2scr375p" Type: BJT
Warning: Multiple definitions of model "bc857b" Type: BJT
Warning: Multiple definitions of model "bc847c" Type: BJT
Warning: Multiple definitions of model "bc847b" Type: BJT
solver = Normal
Maximum thread count: 16



Direct Newton iteration for .op point succeeded.
.step cvar=1e-12



.step cvar=2e-12



.step cvar=3e-12



.step cvar=4e-12



.step cvar=5e-12



.step cvar=6e-12



.step cvar=7e-12



.step cvar=8e-12



.step cvar=9e-12



.step cvar=1e-11



.step cvar=1.1e-11



.step cvar=1.2e-11



.step cvar=1.3e-11



.step cvar=1.4e-11



.step cvar=1.5e-11



.step cvar=1.6e-11



.step cvar=1.7e-11



.step cvar=1.8e-11



.step cvar=1.9e-11
tnom = 27
temp = 27
method = modified trap
.step cvar=2e-11
Total elapsed time: 0.706 seconds.

