LTspice 24.0.9 for Windows
Circuit: * C:\Users\Ditte\aauRepo\esd4\project\Oscilator\ColpittsMenDenVirker.asc
Start Time: Mon Mar 18 15:34:42 2024
Warning: Multiple definitions of model "2scr375p" Type: BJT
Warning: Multiple definitions of model "bc857b" Type: BJT
Warning: Multiple definitions of model "bc847c" Type: BJT
Warning: Multiple definitions of model "bc847b" Type: BJT
solver = Normal
Maximum thread count: 16
tnom = 27
temp = 27
method = modified trap
WARNING: Node N002 is floating.

WARNING: Less than two connections to node vcc-.  This node is used by v2.
Direct Newton iteration for .op point succeeded.
Total elapsed time: 0.832 seconds.

