LTspice 24.0.9 for Windows
Circuit: * C:\Users\theil\OneDrive\Skrivebord\SpiceFiler4Sem\Oscilator\ColpittsOscilator2.asc
Start Time: Mon Feb 19 11:40:08 2024
Warning: Multiple definitions of model "2scr375p" Type: BJT
Warning: Multiple definitions of model "bc857b" Type: BJT
Warning: Multiple definitions of model "bc847c" Type: BJT
Warning: Multiple definitions of model "bc847b" Type: BJT
solver = Normal
Maximum thread count: 12
tnom = 27
temp = 27
method = modified trap
Direct Newton iteration failed to find .op point.  (Use ".option noopiter" to skip.)
Starting Gmin stepping
Gmin = 10
Gmin = 1.07374
vernier = 0.5
vernier = 0.25
vernier = 0.125
vernier = 0.0625
Gmin = 1.2061
vernier = 0.03125
vernier = 0.015625
Gmin = 1.13344
vernier = 0.0208333
vernier = 0.0104167
Gmin = 1.10292
vernier = 0.0138889
vernier = 0.00694444
vernier = 0.00925925
Gmin = 1.08521
vernier = 0.00462963
vernier = 0.00617283
Gmin = 1.0748
vernier = 0.00308642
vernier = 0.00411522
Gmin = 1.06791
vernier = 0.00205761
vernier = 0.00274348
Gmin = 1.06262
vernier = 0.00365797
vernier = 0.00182899
Gmin = 1.05777
vernier = 0.00243865
vernier = 0.00121932
Gmin = 1.05439
vernier = 0.00162576
vernier = 0.00216769
vernier = 0.00108384
Gmin = 1.05125
vernier = 0.00144512
vernier = 0.00192683
Gmin = 1.04762
vernier = 0.000963415
vernier = 0.00128455
Gmin = 1.04552
vernier = 0.000642277
vernier = 0.000856369
Gmin = 1.0439
vernier = 0.00114182
vernier = 0.000570912
Gmin = 1.04241
vernier = 0.000761216
vernier = 0.00101495
vernier = 0.000507477
Gmin = 1.04094
vernier = 0.000676636
Gmin = 1.03936
vernier = 0.000902182
vernier = 0.000451091
vernier = 0.000601454
Gmin = 1.0383
vernier = 0.000801939
vernier = 0.000400969
Gmin = 1.03732
vernier = 0.000534626
vernier = 0.000712834
vernier = 0.000534626
Gmin = 1.03621
vernier = 0.000712834
vernier = 0.000534626
Gmin = 1.0351
vernier = 0.000712834
vernier = 0.000534625
vernier = 0.000712834
vernier = 0.000534625
Gmin = 1.03427
vernier = 0.000712833
vernier = 0.000534625
vernier = 0.000400969
Gmin = 1.03344
vernier = 0.000534625
vernier = 0.000400969
Gmin = 1.03261
vernier = 0.000534625
vernier = 0.000400969
vernier = 0.000534625
Gmin = 1.03175
vernier = 0.000400969
vernier = 0.000534625
vernier = 0.000400968
Gmin = 1.03116
vernier = 0.000534624
vernier = 0.000400968
Gmin = 1.03034
Gmin = 0
Gmin stepping failed

Starting source stepping with srcstepmethod=0
Source Step = 3.0303%
Source Step = 33.3333%
Source Step = 63.6364%
Source Step = 69.1288%
Source Step = 69.5224%
Source Step = 69.552%
Source Step = 69.5816%
Source Step = 69.6112%
Source Step = 69.6407%
vernier = 0.00146484
Source Step = 69.6748%
Source Step = 69.7192%
Source Step = 69.7636%
Source Step = 69.8079%
Source Step = 69.8523%
vernier = 0.00219727
Source Step = 69.9012%
Source Step = 69.9677%
Source Step = 70.0343%
Source Step = 70.1009%
Source Step = 70.1675%
vernier = 0.0032959
Source Step = 70.2374%
Source Step = 70.3373%
Source Step = 70.4372%
Source Step = 70.537%
Source Step = 70.6369%
Source Step = 70.7368%
vernier = 0.00494385
Source Step = 70.8866%
Source Step = 71.0364%
Source Step = 71.1862%
Source Step = 71.336%
Source Step = 71.4859%
vernier = 0.00741577
Source Step = 71.7031%
Source Step = 71.9278%
Source Step = 72.1525%
Source Step = 72.3772%
Source Step = 72.602%
vernier = 0.0111237
Source Step = 72.9166%
Source Step = 73.2537%
Source Step = 73.5907%
Source Step = 73.9278%
Source Step = 74.2649%
vernier = 0.0166855
Source Step = 74.72%
Source Step = 75.2256%
Source Step = 75.7312%
Source Step = 76.2368%
Source Step = 76.7424%
vernier = 0.0250282
Source Step = 77.3997%
Source Step = 78.1582%
Source Step = 78.9166%
Source Step = 79.675%
Source Step = 80.4335%
vernier = 0.0375423
Source Step = 81.3815%
Source Step = 82.5192%
Source Step = 83.6568%
Source Step = 84.7944%
Source Step = 85.9321%
vernier = 0.0563135
Source Step = 87.2973%
Source Step = 89.0037%
Source Step = 90.7102%
Source Step = 91.9901%
vernier = 0.00351959
Source Step = 92.0541%
Source Step = 92.1607%
Source Step = 92.2674%
Source Step = 92.374%
Source Step = 92.4807%
vernier = 0.00527939
Source Step = 92.6353%
Source Step = 92.7953%
Source Step = 92.9553%
Source Step = 93.1153%
Source Step = 93.2753%
vernier = 0.00791909
Source Step = 93.4992%
Source Step = 93.7392%
Source Step = 93.9792%
Source Step = 94.2191%
Source Step = 94.4591%
vernier = 0.0118786
Source Step = 94.7831%
Source Step = 95.143%
Source Step = 95.503%
Source Step = 95.863%
Source Step = 96.2229%
vernier = 0.0178179
Source Step = 96.6909%
Source Step = 97.2308%
Source Step = 97.7707%
Source Step = 98.3107%
Source Step = 98.8506%
vernier = 0.0267269
Source Step = 99.5255%
Source stepping succeeded in finding the operating point.

Total elapsed time: 3.059 seconds.

