LTspice 24.0.9 for Windows
Circuit: * C:\Users\theil\OneDrive\Skrivebord\SpiceFiler4Sem\Oscilator\EM_Theremin_PitchOscilator.asc
Start Time: Fri Mar  8 08:30:01 2024
Warning: Multiple definitions of model "2scr375p" Type: BJT
Warning: Multiple definitions of model "bc857b" Type: BJT
Warning: Multiple definitions of model "bc847c" Type: BJT
Warning: Multiple definitions of model "bc847b" Type: BJT
solver = Normal
Maximum thread count: 12
tnom = 27
temp = 27
method = modified trap
Direct Newton iteration for .op point succeeded.
Heightened Def Con from 0.3069 to 0.3069
Total elapsed time: 1.853 seconds.

