LTspice 24.0.9 for Windows
Circuit: * C:\Users\theil\OneDrive\Skrivebord\SpiceFiler4Sem\Oscilator\FixedPointOscilator.asc
Start Time: Thu Apr 11 09:32:55 2024
Warning: Multiple definitions of model "2scr375p" Type: BJT
Warning: Multiple definitions of model "bc857b" Type: BJT
Warning: Multiple definitions of model "bc847c" Type: BJT
Warning: Multiple definitions of model "bc847b" Type: BJT
solver = Normal
Maximum thread count: 12



WARNING: Node N002 is floating.

WARNING: Less than two connections to node vcc-.  This node is used by v2.
Direct Newton iteration for .op point succeeded.
.step cvar=1.2e-11



.step cvar=8.1e-11
tnom = 27
temp = 27
method = modified trap
.step cvar=1.5e-10
Total elapsed time: 7.731 seconds.

