LTspice 24.0.9 for Windows
Circuit: * C:\Users\theil\OneDrive\Skrivebord\SpiceFiler4Sem\Oscilator\FixedPointOscilator.asc
Start Time: Mon Apr  8 11:18:11 2024
Warning: Multiple definitions of model "2scr375p" Type: BJT
Warning: Multiple definitions of model "bc857b" Type: BJT
Warning: Multiple definitions of model "bc847c" Type: BJT
Warning: Multiple definitions of model "bc847b" Type: BJT
c4: both pins shorted together -- ignoring.
Number of points per decade reduced from 100000 to 31299.
solver = Normal
Maximum thread count: 12
tnom = 27
temp = 27
method = modified trap
WARNING: Node COLLECTOR is floating.
WARNING: Node INDOUT is floating.

WARNING: Less than two connections to node vcc-.  This node is used by v2.
WARNING: Less than two connections to node collector.  This node is used by c6.
Direct Newton iteration for .op point succeeded.
Total elapsed time: 0.505 seconds.

