LTspice 24.0.9 for Windows
Circuit: * C:\Users\theil\OneDrive\Skrivebord\SpiceFiler4Sem\Oscilator\ColpittsOscilator2.asc
Start Time: Thu Feb 22 10:41:55 2024
Warning: Multiple definitions of model "2scr375p" Type: BJT
Warning: Multiple definitions of model "bc857b" Type: BJT
Warning: Multiple definitions of model "bc847c" Type: BJT
Warning: Multiple definitions of model "bc847b" Type: BJT
solver = Normal
Maximum thread count: 12



Direct Newton iteration failed to find .op point.  (Use ".option noopiter" to skip.)
Starting Gmin stepping
Gmin = 10
Gmin = 1.07374
vernier = 0.5
vernier = 0.25
vernier = 0.125
vernier = 0.0625
Gmin = 1.2061
vernier = 0.03125
vernier = 0.015625
Gmin = 1.13344
vernier = 0.0208333
vernier = 0.0104167
Gmin = 1.10292
vernier = 0.0138889
vernier = 0.00694444
vernier = 0.00925925
Gmin = 1.08521
vernier = 0.00462963
vernier = 0.00617283
Gmin = 1.0748
vernier = 0.00308642
vernier = 0.00411522
Gmin = 1.06791
vernier = 0.00205761
vernier = 0.00274348
Gmin = 1.06262
vernier = 0.00365797
vernier = 0.00182899
Gmin = 1.05777
vernier = 0.00243865
vernier = 0.00121932
Gmin = 1.05439
vernier = 0.00162576
vernier = 0.00216769
vernier = 0.00108384
Gmin = 1.05125
vernier = 0.00144512
vernier = 0.00192683
Gmin = 1.04762
vernier = 0.000963415
vernier = 0.00128455
Gmin = 1.04552
vernier = 0.000642277
vernier = 0.000856369
Gmin = 1.0439
vernier = 0.00114182
vernier = 0.000570912
Gmin = 1.04241
vernier = 0.000761216
vernier = 0.00101495
vernier = 0.000507477
Gmin = 1.04094
vernier = 0.000676636
Gmin = 1.03936
vernier = 0.000902182
vernier = 0.000451091
vernier = 0.000601454
Gmin = 1.0383
vernier = 0.000801939
vernier = 0.000400969
Gmin = 1.03732
vernier = 0.000534626
vernier = 0.000712834
vernier = 0.000534626
Gmin = 1.03621
vernier = 0.000712834
vernier = 0.000534626
Gmin = 1.0351
vernier = 0.000712834
vernier = 0.000534625
vernier = 0.000712834
vernier = 0.000534625
Gmin = 1.03427
vernier = 0.000712833
vernier = 0.000534625
vernier = 0.000400969
Gmin = 1.03344
vernier = 0.000534625
vernier = 0.000400969
Gmin = 1.03261
vernier = 0.000534625
vernier = 0.000400969
vernier = 0.000534625
Gmin = 1.03175
vernier = 0.000400969
vernier = 0.000534625
vernier = 0.000400968
Gmin = 1.03116
vernier = 0.000534624
vernier = 0.000400968
Gmin = 1.03034
Gmin = 0
Gmin stepping failed

Starting source stepping with srcstepmethod=0
Source Step = 3.0303%
Source Step = 33.3333%
Source Step = 63.6364%
Source Step = 93.9394%
Source stepping succeeded in finding the operating point.

.step cvar=1e-12



.step cvar=2e-12



.step cvar=3e-12



.step cvar=4e-12



.step cvar=5e-12



.step cvar=6e-12



.step cvar=7e-12



.step cvar=8e-12



.step cvar=9e-12



.step cvar=1e-11



.step cvar=1.1e-11



.step cvar=1.2e-11



.step cvar=1.3e-11



.step cvar=1.4e-11



.step cvar=1.5e-11



.step cvar=1.6e-11



.step cvar=1.7e-11



.step cvar=1.8e-11



.step cvar=1.9e-11



.step cvar=2e-11



.step cvar=2.1e-11



.step cvar=2.2e-11



.step cvar=2.3e-11



.step cvar=2.4e-11



.step cvar=2.5e-11



.step cvar=2.6e-11



.step cvar=2.7e-11



.step cvar=2.8e-11



.step cvar=2.9e-11
tnom = 27
temp = 27
method = modified trap
.step cvar=3e-11
Total elapsed time: 26.063 seconds.

