LTspice 24.0.9 for Windows
Circuit: * C:\Users\Ditte\aauRepo\esd4\project\heterodyneMixing\junk\filtersForMixer.asc
Start Time: Wed Apr 24 13:24:02 2024
Number of points per decade reduced from 10000000 to 12980.
solver = Normal
Maximum thread count: 16
tnom = 27
temp = 27
method = modified trap
WARNING: Node 5ORDER2 is floating.
WARNING: Node N006 is floating.

WARNING: Less than two connections to node 5order2.  This node is used by c7.
WARNING: Less than two connections to node nc_01.  This node is used by r4.
WARNING: Less than two connections to node n006.  This node is used by c8.
.OP point found by inspection.
Total elapsed time: 0.409 seconds.

