LTspice 24.0.9 for Windows
Circuit: * C:\Users\Ditte\aauRepo\esd4\project\heterodyneMixing\junk\filtersForMixer.asc
Start Time: Tue Apr 23 15:35:23 2024
Number of points per decade reduced from 10000000 to 11409.
solver = Normal
Maximum thread count: 16
tnom = 27
temp = 27
method = modified trap
WARNING: Node 5ORDER2 is floating.

WARNING: Less than two connections to node 5order2.  This node is used by c7.
WARNING: Less than two connections to node nc_01.  This node is used by r4.
.OP point found by inspection.
Total elapsed time: 0.306 seconds.

