LTspice 24.0.9 for Windows
Circuit: * C:\Users\Ditte\aauRepo\esd4\project\heterodyneMixing\filtersForMixer.asc
Start Time: Fri Mar 22 09:56:25 2024
Number of points per decade reduced from 10000000 to 11409.
solver = Normal
Maximum thread count: 16
tnom = 27
temp = 27
method = modified trap
.OP point found by inspection.
Total elapsed time: 0.102 seconds.

