LTspice 24.0.9 for Windows
Circuit: * C:\Users\Ditte\aauRepo\esd4\project\heterodyneMixing\improvedHomeBuildMixer2.asc
Start Time: Mon Mar 25 10:39:19 2024
solver = Normal
Maximum thread count: 16
tnom = 27
temp = 27
method = modified trap
WARNING: Node N007 is floating.

WARNING: Less than two connections to node n005.  This node is used by r11.
.OP point found by inspection.
Total elapsed time: 6.649 seconds.

