LTspice 24.0.9 for Windows
Circuit: * C:\Users\Ditte\aauRepo\esd4\project\heterodyneMixing\improvedHomeBuildMixer.asc
Start Time: Fri Mar  1 09:39:36 2024
Warning: Multiple definitions of model "2scr375p" Type: BJT
Warning: Multiple definitions of model "bc857b" Type: BJT
Warning: Multiple definitions of model "bc847c" Type: BJT
Warning: Multiple definitions of model "bc847b" Type: BJT
solver = Normal
Maximum thread count: 16
tnom = 27
temp = 27
method = modified trap
WARNING: Node OUTPUT is floating.

WARNING: Less than two connections to node output.  This node is used by c4.
Direct Newton iteration for .op point succeeded.
Total elapsed time: 0.354 seconds.

