LTspice 24.0.9 for Windows
Circuit: * C:\Users\Ditte\aauRepo\esd4\project\heterodyneMixing\improvedHomeBuildMixer2.asc
Start Time: Fri Mar  1 11:17:38 2024
solver = Normal
Maximum thread count: 16
tnom = 27
temp = 27
method = modified trap
WARNING: Node N001 is floating.
WARNING: Node NC_01 is floating.
WARNING: Node N003 is floating.
WARNING: Node N002 is floating.
WARNING: Node N009 is floating.

WARNING: Less than two connections to node n001.  This node is used by c7.
WARNING: Less than two connections to node nc_01.  This node is used by c7.
WARNING: Less than two connections to node n003.  This node is used by c8.
WARNING: Less than two connections to node n002.  This node is used by c8.
WARNING: Less than two connections to node n007.  This node is used by r11.
.OP point found by inspection.
Total elapsed time: 0.409 seconds.

