LTspice 24.0.9 for Windows
Circuit: * C:\Users\Ditte\OneDrive - Aalborg Universitet\Desktop\esd4\project\heterodyneMixing\mixer3.asc
Start Time: Fri Feb 23 14:28:02 2024
solver = Normal
Maximum thread count: 16
tnom = 27
temp = 27
method = modified trap
Direct Newton iteration for .op point succeeded.
Total elapsed time: 0.387 seconds.

