LTspice 24.0.9 for Windows
Circuit: * C:\Users\Ditte\aauRepo\esd4\project\heterodyneMixing\mixer3.asc
Start Time: Thu Feb 29 11:42:30 2024
solver = Normal
Maximum thread count: 16
tnom = 27
temp = 27
method = modified trap
.OP point found by inspection.
Total elapsed time: 0.427 seconds.

