LTspice 24.0.9 for Windows
Circuit: * C:\Users\Ditte\aauRepo\esd4\project\heterodyneMixing\sysMixerWithBJT.asc
Start Time: Wed Apr 24 08:55:48 2024
Warning: Multiple definitions of model "2scr375p" Type: BJT
Warning: Multiple definitions of model "bc857b" Type: BJT
Warning: Multiple definitions of model "bc847c" Type: BJT
Warning: Multiple definitions of model "bc847b" Type: BJT
solver = Normal
Maximum thread count: 16
tnom = 27
temp = 27
method = modified trap
WARNING: Node N013 is floating.

WARNING: Less than two connections to node n013.  This node is used by c1.
Direct Newton iteration for .op point succeeded.
Total elapsed time: 0.112 seconds.

